Version 4
SHEET 1 880 680
WIRE 176 32 80 32
WIRE -112 48 -240 48
WIRE -672 80 -752 80
WIRE -576 80 -672 80
WIRE -576 112 -576 80
WIRE -64 128 -80 128
WIRE 32 128 16 128
WIRE 80 128 80 32
WIRE 80 128 32 128
WIRE 96 128 80 128
WIRE -240 144 -240 48
WIRE -208 144 -240 144
WIRE 240 144 240 32
WIRE 240 144 160 144
WIRE 288 144 240 144
WIRE -752 160 -752 144
WIRE -640 160 -752 160
WIRE -112 160 -112 48
WIRE -112 160 -144 160
WIRE -80 160 -80 128
WIRE -80 160 -112 160
WIRE 96 160 80 160
WIRE -1056 176 -1152 176
WIRE -752 176 -752 160
WIRE -208 176 -496 176
WIRE -80 192 -80 160
WIRE -64 192 -80 192
WIRE 80 192 80 160
WIRE 80 192 16 192
WIRE -496 208 -496 176
WIRE -496 208 -576 208
WIRE -448 208 -496 208
WIRE -576 224 -576 208
WIRE 288 224 288 144
WIRE 400 224 288 224
WIRE 480 240 464 240
WIRE 496 240 480 240
WIRE 576 240 560 240
WIRE -256 256 -304 256
WIRE 400 256 352 256
WIRE 576 272 576 240
WIRE 32 288 32 128
WIRE 352 320 352 256
WIRE 384 320 352 320
WIRE 480 320 480 240
WIRE 480 320 464 320
WIRE 352 336 352 320
WIRE 32 384 32 368
WIRE 112 432 96 432
WIRE 480 432 480 320
WIRE 480 432 192 432
FLAG -1056 176 0
FLAG -1056 96 +5V
FLAG 128 112 +5V
FLAG 432 208 +5V
FLAG 80 272 0
FLAG 32 480 0
FLAG 352 416 0
FLAG -1152 256 -5V
FLAG 128 176 -5V
FLAG 432 272 -5V
FLAG -752 256 0
FLAG -576 288 0
FLAG -672 80 +5V
FLAG -448 304 0
FLAG -176 128 +5V
FLAG -176 192 -5V
FLAG 576 352 0
FLAG -256 336 0
SYMBOL voltage -1056 80 R0
WINDOW 123 0 0 Left 0
WINDOW 39 0 0 Left 0
SYMATTR InstName V1
SYMATTR Value 5
SYMBOL Opamps\\UniversalOpamp2 128 144 R0
SYMATTR InstName U1
SYMBOL Opamps\\UniversalOpamp2 432 240 R0
SYMATTR InstName U2
SYMBOL cap 240 16 R90
WINDOW 0 0 32 VBottom 0
WINDOW 3 32 32 VTop 0
SYMATTR InstName C1
SYMATTR Value 5µ
SYMBOL res 32 112 R90
WINDOW 0 0 56 VBottom 0
WINDOW 3 32 56 VTop 0
SYMATTR InstName R1
SYMATTR Value 4k
SYMBOL res 32 176 R90
WINDOW 0 0 56 VBottom 0
WINDOW 3 32 56 VTop 0
SYMATTR InstName R2
SYMATTR Value 10k
SYMBOL res 64 176 R0
SYMATTR InstName R3
SYMATTR Value 10k
SYMBOL res 16 272 R0
SYMATTR InstName R4
SYMATTR Value 100
SYMBOL npn 96 384 M0
SYMATTR InstName Q1
SYMBOL res 208 416 R90
WINDOW 0 0 56 VBottom 0
WINDOW 3 32 56 VTop 0
SYMATTR InstName R5
SYMATTR Value 500
SYMBOL res 480 304 R90
WINDOW 0 0 56 VBottom 0
WINDOW 3 32 56 VTop 0
SYMATTR InstName R6
SYMATTR Value 10k
SYMBOL res 336 320 R0
SYMATTR InstName R7
SYMATTR Value 10k
SYMBOL voltage -1152 160 R0
WINDOW 123 0 0 Left 0
WINDOW 39 0 0 Left 0
SYMATTR InstName V2
SYMATTR Value 5
SYMBOL pnp -640 208 M180
SYMATTR InstName Q2
SYMATTR Value BC557B
SYMBOL diode -768 80 R0
SYMATTR InstName D1
SYMATTR Value 1N4148
SYMBOL res -768 160 R0
SYMATTR InstName R8
SYMATTR Value 27k
SYMBOL cap -592 224 R0
SYMATTR InstName C2
SYMATTR Value 10µ
SYMBOL npn -384 208 M0
SYMATTR InstName Q3
SYMATTR Value BC547B
SYMBOL res -288 240 R90
WINDOW 0 0 56 VBottom 0
WINDOW 3 32 56 VTop 0
SYMATTR InstName R9
SYMATTR Value 500
SYMBOL Opamps\\UniversalOpamp2 -176 160 R0
SYMATTR InstName U3
SYMBOL diode 496 256 R270
WINDOW 0 32 32 VTop 0
WINDOW 3 0 32 VBottom 0
SYMATTR InstName D2
SYMBOL res 560 256 R0
SYMATTR InstName R10
SYMATTR Value 10k
SYMBOL voltage -256 240 R0
WINDOW 3 24 104 Invisible 0
WINDOW 123 0 0 Left 0
WINDOW 39 0 0 Left 0
SYMATTR InstName V3
SYMATTR Value PWL(0 0 3 0 3.001 5 3.5 5 3.5001 0)
TEXT -194 328 Left 0 !.tran 10 startup
