Version 4
SHEET 1 900 860
WIRE -608 -688 -608 -720
WIRE -736 -560 -784 -560
WIRE -608 -560 -608 -608
WIRE -608 -560 -672 -560
WIRE -544 -560 -608 -560
WIRE -432 -560 -464 -560
WIRE -416 -560 -432 -560
WIRE 192 -560 -336 -560
WIRE -608 -496 -608 -560
WIRE -784 -336 -784 -560
WIRE -784 -336 -832 -336
WIRE -432 -320 -432 -560
WIRE -272 -320 -336 -320
WIRE -384 -224 -384 -256
WIRE -320 -224 -384 -224
WIRE -208 -224 -240 -224
WIRE -608 -192 -608 -240
WIRE -784 -64 -784 -336
WIRE -736 -64 -784 -64
WIRE -608 -64 -608 -112
WIRE -608 -64 -672 -64
WIRE -544 -64 -608 -64
WIRE -432 -64 -432 -320
WIRE -432 -64 -464 -64
WIRE -416 -64 -432 -64
WIRE 192 -64 192 -560
WIRE 192 -64 -336 -64
WIRE -608 0 -608 -64
WIRE 352 112 256 112
WIRE 192 160 192 -64
WIRE 256 160 256 112
WIRE 320 176 320 80
WIRE 256 192 256 160
WIRE 288 192 256 192
WIRE 432 208 432 112
WIRE 432 208 352 208
WIRE 448 208 432 208
WIRE 624 208 512 208
WIRE 288 224 224 224
WIRE 320 304 320 240
WIRE -624 336 -624 288
WIRE -752 464 -800 464
WIRE -624 464 -624 416
WIRE -624 464 -688 464
WIRE -560 464 -624 464
WIRE -432 464 -480 464
WIRE 192 464 192 160
WIRE 192 464 -352 464
WIRE -432 512 -432 464
WIRE -624 528 -624 464
WIRE -496 560 -528 560
WIRE -528 624 -528 560
WIRE -432 672 -432 608
WIRE -528 736 -528 704
FLAG -432 672 0
FLAG 320 384 0
FLAG 320 0 0
FLAG 224 304 0
FLAG -528 816 0
FLAG -624 608 0
FLAG -880 464 0
FLAG -272 -320 0
FLAG -128 -224 0
FLAG -608 80 0
FLAG -608 -416 0
FLAG -912 -336 0
FLAG 624 288 0
FLAG -528 -720 0
FLAG -688 -240 0
FLAG -704 288 0
FLAG 624 208 out
SYMBOL cap -688 448 R90
WINDOW 0 0 32 VBottom 0
WINDOW 3 32 32 VTop 0
SYMATTR InstName C1
SYMATTR Value 1.7
SYMBOL cap 256 144 R90
WINDOW 0 0 32 VBottom 0
WINDOW 3 32 32 VTop 0
SYMATTR InstName C2
SYMATTR Value 800n
SYMBOL cap 512 192 R90
WINDOW 0 0 32 VBottom 0
WINDOW 3 32 32 VTop 0
SYMATTR InstName C3
SYMATTR Value 1.7
SYMBOL res -640 320 R0
SYMATTR InstName R1
SYMATTR Value 100K
SYMBOL res -640 512 R0
SYMATTR InstName R2
SYMATTR Value 100K
SYMBOL res 208 208 R0
SYMATTR InstName R3
SYMATTR Value 11.8K
SYMBOL res -464 448 R90
WINDOW 0 0 56 VBottom 0
WINDOW 3 32 56 VTop 0
SYMATTR InstName R4
SYMATTR Value 40.2K
SYMBOL res -336 448 R90
WINDOW 0 0 56 VBottom 0
WINDOW 3 32 56 VTop 0
SYMATTR InstName R5
SYMATTR Value 7.32K
SYMBOL res -544 608 R0
SYMATTR InstName R6
SYMATTR Value 8.8K
SYMBOL res 448 96 R90
WINDOW 0 0 56 VBottom 0
WINDOW 3 32 56 VTop 0
SYMATTR InstName R7
SYMATTR Value 47.5K
SYMBOL voltage -784 464 R90
WINDOW 0 -32 56 VBottom 0
WINDOW 3 32 56 VTop 0
WINDOW 123 60 56 VTop 0
WINDOW 39 0 0 Left 0
SYMATTR InstName V1
SYMATTR Value SINE(0 200m 1000)
SYMATTR Value2 AC 200m
SYMBOL voltage 320 96 R180
WINDOW 0 24 104 Left 0
WINDOW 3 24 16 Left 0
WINDOW 123 0 0 Left 0
WINDOW 39 0 0 Left 0
SYMATTR InstName V3
SYMATTR Value 15
SYMBOL voltage 320 288 R0
WINDOW 123 0 0 Left 0
WINDOW 39 0 0 Left 0
SYMATTR InstName V4
SYMATTR Value -15
SYMBOL voltage -528 720 R0
WINDOW 123 0 0 Left 0
WINDOW 39 0 0 Left 0
SYMATTR InstName V5
SYMATTR Value 0
SYMBOL Opamps\\UniversalOpamp2 320 208 R0
SYMATTR InstName U1
SYMBOL npn -496 512 R0
SYMATTR InstName Q1
SYMATTR Value BC547B
SYMBOL cap -672 -80 R90
WINDOW 0 0 32 VBottom 0
WINDOW 3 32 32 VTop 0
SYMATTR InstName C4
SYMATTR Value 1.7
SYMBOL res -624 -208 R0
SYMATTR InstName R8
SYMATTR Value 100K
SYMBOL res -624 -16 R0
SYMATTR InstName R9
SYMATTR Value 100K
SYMBOL res -448 -80 R90
WINDOW 0 0 56 VBottom 0
WINDOW 3 32 56 VTop 0
SYMATTR InstName R10
SYMATTR Value 40.2K
SYMBOL res -320 -80 R90
WINDOW 0 0 56 VBottom 0
WINDOW 3 32 56 VTop 0
SYMATTR InstName R11
SYMATTR Value 7.32K
SYMBOL res -336 -208 R270
WINDOW 0 32 56 VTop 0
WINDOW 3 0 56 VBottom 0
SYMATTR InstName R12
SYMATTR Value 8.8K
SYMBOL voltage -224 -224 R270
WINDOW 3 24 -12 Left 0
WINDOW 123 0 0 Left 0
WINDOW 39 0 0 Left 0
SYMATTR InstName V6
SYMATTR Value 5
SYMBOL npn -432 -256 R270
SYMATTR InstName Q2
SYMATTR Value BC547B
SYMBOL cap -672 -576 R90
WINDOW 0 0 32 VBottom 0
WINDOW 3 32 32 VTop 0
SYMATTR InstName C5
SYMATTR Value 1.7
SYMBOL res -624 -704 R0
SYMATTR InstName R13
SYMATTR Value 100K
SYMBOL res -624 -512 R0
SYMATTR InstName R14
SYMATTR Value 100K
SYMBOL res -448 -576 R90
WINDOW 0 0 56 VBottom 0
WINDOW 3 32 56 VTop 0
SYMATTR InstName R15
SYMATTR Value 40.2K
SYMBOL res -320 -576 R90
WINDOW 0 0 56 VBottom 0
WINDOW 3 32 56 VTop 0
SYMATTR InstName R16
SYMATTR Value 7.32K
SYMBOL voltage -816 -336 R90
WINDOW 0 -32 56 VBottom 0
WINDOW 3 42 147 VTop 0
WINDOW 123 76 124 VTop 0
WINDOW 39 0 0 Left 0
SYMATTR InstName V7
SYMATTR Value ""
SYMATTR Value2 AC 200m
SYMBOL res 608 192 R0
SYMATTR InstName R18
SYMATTR Value 47.5K
SYMBOL voltage -624 -720 R270
WINDOW 0 32 56 VTop 0
WINDOW 3 -32 56 VBottom 0
WINDOW 123 0 0 Left 0
WINDOW 39 0 0 Left 0
SYMATTR InstName V9
SYMATTR Value 5
SYMBOL voltage -592 -240 R90
WINDOW 0 -32 56 VBottom 0
WINDOW 3 32 56 VTop 0
WINDOW 123 0 0 Left 0
WINDOW 39 0 0 Left 0
SYMATTR InstName V10
SYMATTR Value 5
SYMBOL voltage -608 288 R90
WINDOW 0 -32 56 VBottom 0
WINDOW 3 32 56 VTop 0
WINDOW 123 0 0 Left 0
WINDOW 39 0 0 Left 0
SYMATTR InstName V11
SYMATTR Value 5
TEXT -1056 844 Left 0 !.tran 10m
TEXT -296 248 Left 0 !.fourier 5k V(out)
