Version 4
SHEET 1 900 868
WIRE -608 -688 -608 -736
WIRE -736 -560 -784 -560
WIRE -608 -560 -608 -608
WIRE -608 -560 -672 -560
WIRE -384 -560 -608 -560
WIRE -112 -560 -304 -560
WIRE -16 -560 -112 -560
WIRE 128 -560 64 -560
WIRE 320 -560 192 -560
WIRE -112 -512 -112 -560
WIRE -608 -496 -608 -560
WIRE -160 -432 -224 -432
WIRE -224 -400 -224 -432
WIRE -112 -352 -112 -416
WIRE -608 -192 -608 -240
WIRE 528 -112 432 -112
WIRE -736 -64 -784 -64
WIRE -608 -64 -608 -112
WIRE -608 -64 -672 -64
WIRE -384 -64 -608 -64
WIRE -112 -64 -304 -64
WIRE -16 -64 -112 -64
WIRE 128 -64 64 -64
WIRE 320 -64 320 -560
WIRE 320 -64 192 -64
WIRE 432 -64 432 -112
WIRE 432 -64 320 -64
WIRE 496 -48 496 -144
WIRE 432 -32 432 -64
WIRE 464 -32 432 -32
WIRE -112 -16 -112 -64
WIRE 608 -16 608 -112
WIRE 608 -16 528 -16
WIRE 624 -16 608 -16
WIRE 800 -16 688 -16
WIRE -608 0 -608 -64
WIRE 464 0 400 0
WIRE -160 64 -224 64
WIRE 496 80 496 16
WIRE -224 96 -224 64
WIRE -112 144 -112 80
WIRE -608 288 -608 240
WIRE -752 416 -784 416
WIRE -736 416 -752 416
WIRE -608 416 -608 368
WIRE -608 416 -672 416
WIRE -384 416 -608 416
WIRE -112 416 -304 416
WIRE -16 416 -112 416
WIRE 128 416 64 416
WIRE 320 416 320 -64
WIRE 320 416 192 416
WIRE -112 464 -112 416
WIRE -608 480 -608 416
WIRE -160 544 -224 544
WIRE -224 576 -224 544
WIRE -112 624 -112 560
FLAG 496 160 0
FLAG 496 -224 0
FLAG 400 80 0
FLAG -608 80 0
FLAG 800 64 0
FLAG -688 -240 0
FLAG 800 -16 out
FLAG -112 144 0
FLAG -224 176 0
FLAG -864 -64 0
FLAG -608 560 0
FLAG -688 240 0
FLAG -112 624 0
FLAG -224 656 0
FLAG -864 416 0
FLAG -752 416 Sig
FLAG -608 -416 0
FLAG -688 -736 0
FLAG -112 -352 0
FLAG -224 -320 0
FLAG -864 -560 0
SYMBOL cap 128 432 R270
WINDOW 0 32 32 VTop 0
WINDOW 3 0 32 VBottom 0
SYMATTR InstName C2
SYMATTR Value 33.6
SYMBOL cap 688 -32 R90
WINDOW 0 0 32 VBottom 0
WINDOW 3 32 32 VTop 0
SYMATTR InstName C3
SYMATTR Value 8.7
SYMBOL res 384 -16 R0
SYMATTR InstName R3
SYMATTR Value 10K
SYMBOL res 624 -128 R90
WINDOW 0 0 56 VBottom 0
WINDOW 3 32 56 VTop 0
SYMATTR InstName R7
SYMATTR Value 80.4k
SYMBOL voltage 496 -128 R180
WINDOW 0 24 104 Left 0
WINDOW 3 24 16 Left 0
WINDOW 123 0 0 Left 0
WINDOW 39 0 0 Left 0
SYMATTR InstName V3
SYMATTR Value 15
SYMBOL voltage 496 64 R0
WINDOW 123 0 0 Left 0
WINDOW 39 0 0 Left 0
SYMATTR InstName V4
SYMATTR Value -15
SYMBOL Opamps\\UniversalOpamp2 496 -16 R0
SYMATTR InstName U1
SYMBOL cap -672 -80 R90
WINDOW 0 0 32 VBottom 0
WINDOW 3 32 32 VTop 0
SYMATTR InstName C4
SYMATTR Value 8
SYMBOL res -624 -208 R0
SYMATTR InstName R8
SYMATTR Value 100K
SYMBOL res -624 -16 R0
SYMATTR InstName R9
SYMATTR Value 100K
SYMBOL res -288 -80 R90
WINDOW 0 0 56 VBottom 0
WINDOW 3 32 56 VTop 0
SYMATTR InstName R10
SYMATTR Value 40.2K
SYMBOL res 784 -32 R0
SYMATTR InstName R18
SYMATTR Value 22K
SYMBOL voltage -592 -240 R90
WINDOW 0 -32 56 VBottom 0
WINDOW 3 32 56 VTop 0
WINDOW 123 0 0 Left 0
WINDOW 39 0 0 Left 0
SYMATTR InstName V10
SYMATTR Value 5
SYMBOL res 80 -80 R90
WINDOW 0 0 56 VBottom 0
WINDOW 3 32 56 VTop 0
SYMATTR InstName R11
SYMATTR Value 40.2k
SYMBOL voltage -224 80 R0
WINDOW 123 0 0 Left 0
WINDOW 39 0 0 Left 0
SYMATTR InstName V5
SYMATTR Value 0
SYMBOL myLib\\FDV303 -160 -16 R0
SYMATTR InstName U4
SYMBOL voltage -768 -64 R90
WINDOW 0 -32 56 VBottom 0
WINDOW 3 32 56 VTop 0
SYMATTR InstName V7
SYMATTR Value SINE(0 2 1000)
SYMATTR Value2 AC 2
SYMATTR SpiceLine Rser=2.2k
SYMBOL cap -672 400 R90
WINDOW 0 0 32 VBottom 0
WINDOW 3 32 32 VTop 0
SYMATTR InstName C1
SYMATTR Value 8
SYMBOL res -624 272 R0
SYMATTR InstName R1
SYMATTR Value 100K
SYMBOL res -624 464 R0
SYMATTR InstName R2
SYMATTR Value 100K
SYMBOL res -288 400 R90
WINDOW 0 0 56 VBottom 0
WINDOW 3 32 56 VTop 0
SYMATTR InstName R4
SYMATTR Value 40.2K
SYMBOL voltage -592 240 R90
WINDOW 0 -32 56 VBottom 0
WINDOW 3 32 56 VTop 0
WINDOW 123 0 0 Left 0
WINDOW 39 0 0 Left 0
SYMATTR InstName V1
SYMATTR Value 5
SYMBOL res 80 400 R90
WINDOW 0 0 56 VBottom 0
WINDOW 3 32 56 VTop 0
SYMATTR InstName R5
SYMATTR Value 40.2k
SYMBOL voltage -224 560 R0
WINDOW 123 0 0 Left 0
WINDOW 39 0 0 Left 0
SYMATTR InstName V8
SYMATTR Value 0
SYMBOL myLib\\FDV303 -160 464 R0
SYMATTR InstName U2
SYMBOL voltage -768 416 R90
WINDOW 0 -32 56 VBottom 0
WINDOW 3 32 56 VTop 0
SYMATTR InstName V11
SYMATTR Value SINE(0 2 1000)
SYMATTR Value2 AC 2
SYMATTR SpiceLine Rser=2.2k
SYMBOL cap 128 -48 R270
WINDOW 0 32 32 VTop 0
WINDOW 3 0 32 VBottom 0
SYMATTR InstName C6
SYMATTR Value 33.6
SYMBOL cap -672 -576 R90
WINDOW 0 0 32 VBottom 0
WINDOW 3 32 32 VTop 0
SYMATTR InstName C5
SYMATTR Value 8
SYMBOL res -624 -704 R0
SYMATTR InstName R6
SYMATTR Value 100K
SYMBOL res -624 -512 R0
SYMATTR InstName R12
SYMATTR Value 100K
SYMBOL res -288 -576 R90
WINDOW 0 0 56 VBottom 0
WINDOW 3 32 56 VTop 0
SYMATTR InstName R13
SYMATTR Value 40.2K
SYMBOL voltage -592 -736 R90
WINDOW 0 -32 56 VBottom 0
WINDOW 3 32 56 VTop 0
WINDOW 123 0 0 Left 0
WINDOW 39 0 0 Left 0
SYMATTR InstName V2
SYMATTR Value 5
SYMBOL res 80 -576 R90
WINDOW 0 0 56 VBottom 0
WINDOW 3 32 56 VTop 0
SYMATTR InstName R14
SYMATTR Value 40.2k
SYMBOL voltage -224 -416 R0
WINDOW 123 0 0 Left 0
WINDOW 39 0 0 Left 0
SYMATTR InstName V6
SYMATTR Value 0
SYMBOL myLib\\FDV303 -160 -512 R0
SYMATTR InstName U3
SYMBOL voltage -768 -560 R90
WINDOW 0 -32 56 VBottom 0
WINDOW 3 32 56 VTop 0
SYMATTR InstName V9
SYMATTR Value SINE(0 2 1000)
SYMATTR Value2 AC 2
SYMATTR SpiceLine Rser=2.2k
SYMBOL cap 128 -544 R270
WINDOW 0 32 32 VTop 0
WINDOW 3 0 32 VBottom 0
SYMATTR InstName C7
SYMATTR Value 33.6
TEXT -912 680 Left 0 !.ac dec 10 2 200k
TEXT 376 664 Left 0 !.fourier 1k V(out)
