Version 4
SHEET 1 916 680
WIRE -656 0 -736 0
WIRE -576 0 -656 0
WIRE -304 32 -432 32
WIRE 176 32 80 32
WIRE -736 80 -736 64
WIRE -576 96 -576 80
WIRE -432 128 -432 32
WIRE -400 128 -432 128
WIRE -64 128 -80 128
WIRE 32 128 16 128
WIRE 80 128 80 32
WIRE 80 128 32 128
WIRE 96 128 80 128
WIRE -640 144 -736 144
WIRE -304 144 -304 32
WIRE -304 144 -336 144
WIRE -272 144 -304 144
WIRE -176 144 -176 112
WIRE -176 144 -192 144
WIRE -112 144 -176 144
WIRE 240 144 240 32
WIRE 240 144 160 144
WIRE 288 144 240 144
WIRE -400 160 -496 160
WIRE -176 160 -176 144
WIRE -112 160 -112 144
WIRE -80 160 -80 128
WIRE -80 160 -112 160
WIRE 96 160 80 160
WIRE -736 176 -736 144
WIRE -176 176 -176 160
WIRE -80 192 -80 160
WIRE -64 192 -80 192
WIRE 80 192 80 160
WIRE 80 192 16 192
WIRE -576 208 -576 192
WIRE -496 208 -496 160
WIRE -496 208 -576 208
WIRE -448 208 -496 208
WIRE -576 224 -576 208
WIRE 288 224 288 144
WIRE 400 224 288 224
WIRE 480 240 464 240
WIRE 496 240 480 240
WIRE -368 256 -384 256
WIRE -240 256 -288 256
WIRE -176 256 -176 240
WIRE 400 256 352 256
WIRE 32 288 32 128
WIRE 352 320 352 256
WIRE 352 320 256 320
WIRE 384 320 352 320
WIRE 480 320 480 240
WIRE 480 320 464 320
WIRE -608 336 -704 336
WIRE 352 336 352 320
WIRE -240 352 -240 256
WIRE 32 384 32 368
WIRE -240 400 -240 352
WIRE -240 400 -256 400
WIRE -608 416 -608 336
WIRE -608 416 -704 416
WIRE -240 432 -240 400
WIRE 112 432 96 432
WIRE 480 432 480 320
WIRE 480 432 192 432
FLAG -1056 176 0
FLAG -1056 96 +5V
FLAG 128 112 +5V
FLAG 432 208 +5V
FLAG 80 272 0
FLAG 32 480 0
FLAG 352 416 0
FLAG -576 288 0
FLAG -448 304 0
FLAG -368 112 +5V
FLAG 128 176 0
FLAG 432 272 0
FLAG 496 240 OUT
FLAG -368 176 0
FLAG 256 240 +5V
FLAG -656 0 +5V
FLAG -736 256 0
FLAG -176 256 0
FLAG -176 32 +5V
FLAG -336 400 +5V
FLAG -176 352 Op
FLAG -176 432 Ned
SYMBOL voltage -1056 80 R0
WINDOW 123 0 0 Left 0
WINDOW 39 0 0 Left 0
SYMATTR InstName V1
SYMATTR Value 5
SYMBOL Opamps\\UniversalOpamp2 128 144 R0
SYMATTR InstName U1
SYMBOL Opamps\\UniversalOpamp2 432 240 R0
SYMATTR InstName U2
SYMBOL cap 240 16 R90
WINDOW 0 0 32 VBottom 0
WINDOW 3 32 32 VTop 0
SYMATTR InstName C1
SYMATTR Value 40n
SYMBOL res -80 144 R270
WINDOW 0 32 56 VTop 0
WINDOW 3 0 56 VBottom 0
SYMATTR InstName R1
SYMATTR Value 1000k
SYMBOL res -80 208 R270
WINDOW 0 32 56 VTop 0
WINDOW 3 0 56 VBottom 0
SYMATTR InstName R2
SYMATTR Value 10k
SYMBOL res 64 176 R0
SYMATTR InstName R3
SYMATTR Value 10k
SYMBOL res 16 272 R0
SYMATTR InstName R4
SYMATTR Value 100k
SYMBOL npn 96 384 M0
SYMATTR InstName Q1
SYMATTR Value BC547B
SYMBOL res 208 416 R90
WINDOW 0 0 56 VBottom 0
WINDOW 3 32 56 VTop 0
SYMATTR InstName R5
SYMATTR Value 10k
SYMBOL res 480 304 R90
WINDOW 0 0 56 VBottom 0
WINDOW 3 32 56 VTop 0
SYMATTR InstName R6
SYMATTR Value 10k
SYMBOL res 336 320 R0
SYMATTR InstName R7
SYMATTR Value 10k
SYMBOL cap -592 224 R0
SYMATTR InstName C2
SYMATTR Value 10µ
SYMBOL npn -384 208 M0
SYMATTR InstName Q3
SYMATTR Value BC547B
SYMBOL Opamps\\UniversalOpamp2 -368 144 R0
SYMATTR InstName U3
SYMBOL res 240 224 R0
SYMATTR InstName R10
SYMATTR Value 10k
SYMBOL pnp -640 192 M180
SYMATTR InstName Q4
SYMATTR Value BC557B
SYMBOL diode -752 80 R0
SYMATTR InstName D2
SYMATTR Value 1N4148
SYMBOL diode -752 0 R0
SYMATTR InstName D3
SYMATTR Value 1N4148
SYMBOL res -592 -16 R0
SYMATTR InstName R11
SYMATTR Value 55.6k
SYMBOL res -752 160 R0
SYMATTR InstName R12
SYMATTR Value 40k
SYMBOL res -272 240 R90
WINDOW 0 0 56 VBottom 0
WINDOW 3 32 56 VTop 0
SYMATTR InstName R8
SYMATTR Value 10k
SYMBOL res -176 128 R90
WINDOW 0 0 56 VBottom 0
WINDOW 3 32 56 VTop 0
SYMATTR InstName R9
SYMATTR Value 1k
SYMBOL res -192 16 R0
SYMATTR InstName R13
SYMATTR Value 20k
SYMBOL voltage -704 320 R0
WINDOW 3 24 104 Invisible 0
WINDOW 123 0 0 Left 0
WINDOW 39 0 0 Left 0
SYMATTR InstName V3
SYMATTR Value PWL(0 5 1 5 1.001 0 1.5 0 1.501 5)
SYMBOL res -192 144 R0
SYMATTR InstName R14
SYMATTR Value 10k
SYMBOL diode -240 368 R270
WINDOW 0 32 32 VTop 0
WINDOW 3 0 32 VBottom 0
SYMATTR InstName D1
SYMATTR Value 1N4148
SYMBOL diode -240 448 R270
WINDOW 0 32 32 VTop 0
WINDOW 3 0 32 VBottom 0
SYMATTR InstName D4
SYMATTR Value 1N4148
SYMBOL res -240 384 R90
WINDOW 0 0 56 VBottom 0
WINDOW 3 32 56 VTop 0
SYMATTR InstName R15
SYMATTR Value 10k
TEXT -1104 240 Left 0 !.tran 0 7 0 0.1m startup
