Version 4
SHEET 1 3092 680
WIRE 80 -176 -192 -176
WIRE 1728 -32 1728 -64
WIRE 1872 -32 1728 -32
WIRE 2032 -32 1936 -32
WIRE 1024 -16 1024 -48
WIRE 1168 -16 1024 -16
WIRE 1296 -16 1232 -16
WIRE 1328 -16 1296 -16
WIRE 480 0 480 -32
WIRE 688 0 480 0
WIRE 2032 0 2032 -32
WIRE 1328 16 1328 -16
WIRE 1536 16 1536 -64
WIRE 1664 16 1536 16
WIRE 752 32 752 0
WIRE 832 32 832 -48
WIRE 832 32 752 32
WIRE 960 32 832 32
WIRE 80 48 80 -176
WIRE 288 48 288 -32
WIRE 288 48 144 48
WIRE 416 48 288 48
WIRE 1728 80 1728 64
WIRE 1776 80 1728 80
WIRE 1888 80 1840 80
WIRE 1024 96 1024 80
WIRE 1072 96 1024 96
WIRE 1184 96 1136 96
WIRE -544 112 -544 32
WIRE 480 112 480 96
WIRE 528 112 480 112
WIRE 640 112 592 112
WIRE 1536 112 1536 16
WIRE 1728 112 1728 80
WIRE 1888 112 1888 80
WIRE 832 128 832 32
WIRE 1024 128 1024 96
WIRE 1184 128 1184 96
WIRE 288 144 288 48
WIRE 480 144 480 112
WIRE 640 144 640 112
WIRE -192 176 -192 -176
WIRE -112 176 -192 176
WIRE -544 192 -736 192
WIRE -448 192 -544 192
WIRE -112 272 -112 256
WIRE -736 336 -736 192
WIRE -656 336 -736 336
WIRE -656 432 -656 416
FLAG 416 -528 0
FLAG -544 32 10V
FLAG 416 -608 10V
FLAG 640 224 0
FLAG 480 224 0
FLAG 288 224 0
FLAG 528 -608 15V
FLAG 480 -112 15V
FLAG 288 -112 15V
FLAG 528 -528 0
FLAG 1184 208 0
FLAG 1024 208 0
FLAG 832 208 0
FLAG 1024 -128 15V
FLAG 832 -128 15V
FLAG 1296 -16 out
FLAG 1328 96 0
FLAG 1888 192 0
FLAG 1728 192 0
FLAG 1536 192 0
FLAG 1728 -144 15V
FLAG 1536 -144 15V
FLAG -656 512 0
FLAG -544 272 0
FLAG -112 272 0
FLAG -384 272 0
SYMBOL voltage 416 -624 R0
WINDOW 123 0 0 Left 0
WINDOW 39 0 0 Left 0
SYMATTR InstName V1
SYMATTR Value 10
SYMBOL res -560 96 R0
SYMATTR InstName R1
SYMATTR Value 8k
SYMBOL voltage 528 -624 R0
WINDOW 123 0 0 Left 0
WINDOW 39 0 0 Left 0
SYMATTR InstName V2
SYMATTR Value 15
SYMBOL cap 80 64 R270
WINDOW 0 32 32 VTop 0
WINDOW 3 0 32 VBottom 0
SYMATTR InstName C1
SYMATTR Value 1.26
SYMBOL res 272 -128 R0
SYMATTR InstName R2
SYMATTR Value 127k
SYMBOL res 272 128 R0
SYMATTR InstName R3
SYMATTR Value 40.2k
SYMBOL npn 416 0 R0
SYMATTR InstName Q1
SYMATTR Value BC547B
SYMBOL res 464 128 R0
SYMATTR InstName R4
SYMATTR Value 2.74k
SYMBOL res 624 128 R0
SYMATTR InstName R5
SYMATTR Value 963
SYMBOL res 464 -128 R0
SYMATTR InstName R6
SYMATTR Value 10.5k
SYMBOL cap 528 128 R270
WINDOW 0 32 32 VTop 0
WINDOW 3 0 32 VBottom 0
SYMATTR InstName C2
SYMATTR Value 128
SYMBOL voltage -112 160 R0
WINDOW 123 24 132 Left 0
WINDOW 39 24 132 Left 0
SYMATTR Value2 AC 18m
SYMATTR SpiceLine Rser=2.2k
SYMATTR InstName MICV
SYMATTR Value SINE(0 31.6m 1000)
SYMBOL res 816 -144 R0
SYMATTR InstName R7
SYMATTR Value 127k
SYMBOL res 816 112 R0
SYMATTR InstName R8
SYMATTR Value 40.2k
SYMBOL npn 960 -16 R0
SYMATTR InstName Q2
SYMATTR Value BC547B
SYMBOL res 1008 112 R0
SYMATTR InstName R9
SYMATTR Value 5.9k
SYMBOL res 1168 112 R0
SYMATTR InstName R10
SYMATTR Value 2.49k
SYMBOL res 1008 -144 R0
SYMATTR InstName R11
SYMATTR Value 18.7k
SYMBOL cap 1072 112 R270
WINDOW 0 32 32 VTop 0
WINDOW 3 0 32 VBottom 0
SYMATTR InstName C3
SYMATTR Value 108
SYMBOL cap 1168 0 R270
WINDOW 0 32 32 VTop 0
WINDOW 3 0 32 VBottom 0
SYMATTR InstName C5
SYMATTR Value 2.6
SYMBOL cap 688 16 R270
WINDOW 0 32 32 VTop 0
WINDOW 3 0 32 VBottom 0
SYMATTR InstName C6
SYMATTR Value 2.6
SYMBOL res 1312 0 R0
SYMATTR InstName R19
SYMATTR Value 30.8k
SYMBOL res 1520 -160 R0
SYMATTR InstName R12
SYMATTR Value 128k
SYMBOL res 1520 96 R0
SYMATTR InstName R14
SYMATTR Value 40.5k
SYMBOL npn 1664 -32 R0
SYMATTR InstName Q4
SYMATTR Value BC547B
SYMBOL res 1712 96 R0
SYMATTR InstName R20
SYMATTR Value 7438
SYMBOL res 1872 96 R0
SYMATTR InstName R21
SYMATTR Value 2952
SYMBOL res 1712 -160 R0
SYMATTR InstName R22
SYMATTR Value 23784
SYMBOL cap 1776 96 R270
WINDOW 0 32 32 VTop 0
WINDOW 3 0 32 VBottom 0
SYMATTR InstName C8
SYMATTR Value 108
SYMBOL cap 1872 -16 R270
WINDOW 0 32 32 VTop 0
WINDOW 3 0 32 VBottom 0
SYMATTR InstName C9
SYMATTR Value 2.6
SYMBOL res -672 416 R0
SYMATTR InstName R23
SYMATTR Value 1.8k
SYMBOL res -560 176 R0
SYMATTR InstName R24
SYMATTR Value 4k
SYMBOL voltage -656 320 R0
WINDOW 123 24 132 Left 0
WINDOW 39 24 132 Left 0
SYMATTR Value2 AC 18m
SYMATTR SpiceLine Rser=2.2kk
SYMATTR InstName MICV2
SYMATTR Value SINE(0 3.15m 1000)
SYMBOL cap -448 208 R270
WINDOW 0 32 32 VTop 0
WINDOW 3 0 32 VBottom 0
SYMATTR InstName C4
SYMATTR Value 2.6
SYMBOL res -400 176 R0
SYMATTR InstName R13
SYMATTR Value 30.8k
TEXT 120 -576 Left 0 !.tran 0 10m 0 0.1u
TEXT -144 -568 Left 0 !.fourier 1k V(out)
