Version 4
SHEET 1 1484 680
WIRE -16 -32 -16 -112
WIRE 1024 -16 1024 -48
WIRE 1168 -16 1024 -16
WIRE 1328 -16 1232 -16
WIRE 480 0 480 -32
WIRE 688 0 480 0
WIRE 1328 16 1328 -16
WIRE 752 32 752 0
WIRE 832 32 832 -48
WIRE 832 32 752 32
WIRE 960 32 832 32
WIRE -16 48 -112 48
WIRE 80 48 -16 48
WIRE 288 48 288 -32
WIRE 288 48 144 48
WIRE 416 48 288 48
WIRE -112 80 -112 48
WIRE 1024 96 1024 80
WIRE 1072 96 1024 96
WIRE 1184 96 1136 96
WIRE 480 112 480 96
WIRE 528 112 480 112
WIRE 640 112 592 112
WIRE 832 128 832 32
WIRE 1024 128 1024 96
WIRE 1184 128 1184 96
WIRE 288 144 288 48
WIRE 480 144 480 112
WIRE 640 144 640 112
WIRE -112 176 -112 144
WIRE -112 288 -112 256
FLAG 416 -528 0
FLAG -112 288 0
FLAG -16 -112 5V
FLAG 416 -608 5V
FLAG 640 224 0
FLAG 480 224 0
FLAG 288 224 0
FLAG 528 -608 15V
FLAG 480 -112 15V
FLAG 288 -112 15V
FLAG 528 -528 0
FLAG 1184 208 0
FLAG 1024 208 0
FLAG 832 208 0
FLAG 1024 -128 15V
FLAG 832 -128 15V
FLAG 1328 96 0
FLAG 1328 -16 out
SYMBOL voltage 416 -624 R0
WINDOW 123 0 0 Left 0
WINDOW 39 0 0 Left 0
SYMATTR InstName V1
SYMATTR Value 5
SYMBOL res -32 -48 R0
SYMATTR InstName R1
SYMATTR Value 7.87K
SYMBOL voltage 528 -624 R0
WINDOW 123 0 0 Left 0
WINDOW 39 0 0 Left 0
SYMATTR InstName V2
SYMATTR Value 15
SYMBOL res2 -96 144 R180
WINDOW 0 36 56 Left 0
WINDOW 3 36 16 Left 0
SYMATTR InstName MICR
SYMATTR Value 2.2K
SYMBOL cap 80 64 R270
WINDOW 0 32 32 VTop 0
WINDOW 3 0 32 VBottom 0
SYMATTR InstName C1
SYMATTR Value 1.26
SYMBOL res 272 -128 R0
SYMATTR InstName R2
SYMATTR Value 243k
SYMBOL res 272 128 R0
SYMATTR InstName R3
SYMATTR Value 84.5k
SYMBOL npn 416 0 R0
SYMATTR InstName Q1
SYMATTR Value BC547B
SYMBOL res 464 128 R0
SYMATTR InstName R4
SYMATTR Value 2.49k
SYMBOL res 624 128 R0
SYMATTR InstName R5
SYMATTR Value 619
SYMBOL res 464 -128 R0
SYMATTR InstName R6
SYMATTR Value 9.76k
SYMBOL cap 528 128 R270
WINDOW 0 32 32 VTop 0
WINDOW 3 0 32 VBottom 0
SYMATTR InstName C2
SYMATTR Value 128
SYMBOL voltage -112 160 R0
WINDOW 123 24 132 Left 0
WINDOW 39 0 0 Left 0
SYMATTR Value2 AC 18m
SYMATTR InstName MICV
SYMATTR Value SINE(0 18m 1000)
SYMBOL res 816 -144 R0
SYMATTR InstName R7
SYMATTR Value 127k
SYMBOL res 816 112 R0
SYMATTR InstName R8
SYMATTR Value 40.2k
SYMBOL npn 960 -16 R0
SYMATTR InstName Q2
SYMATTR Value BC547B
SYMBOL res 1008 112 R0
SYMATTR InstName R9
SYMATTR Value 2.67k
SYMBOL res 1168 112 R0
SYMATTR InstName R10
SYMATTR Value 768
SYMBOL res 1008 -144 R0
SYMATTR InstName R11
SYMATTR Value 8.87k
SYMBOL cap 1072 112 R270
WINDOW 0 32 32 VTop 0
WINDOW 3 0 32 VBottom 0
SYMATTR InstName C3
SYMATTR Value 108
SYMBOL cap 1168 0 R270
WINDOW 0 32 32 VTop 0
WINDOW 3 0 32 VBottom 0
SYMATTR InstName C5
SYMATTR Value 2.6
SYMBOL res 1344 112 R180
WINDOW 0 36 76 Left 0
WINDOW 3 36 40 Left 0
SYMATTR InstName R14
SYMATTR Value 30.8k
SYMBOL cap 688 16 R270
WINDOW 0 32 32 VTop 0
WINDOW 3 0 32 VBottom 0
SYMATTR InstName C6
SYMATTR Value 2.6
TEXT 120 -576 Left 0 !.tran 0 10m 0 0.1u
TEXT -144 -568 Left 0 !.fourier 1k V(out)
