Version 4
SHEET 1 880 680
WIRE 96 64 48 64
WIRE 48 144 48 64
WIRE 48 144 0 144
WIRE 160 144 160 112
WIRE 288 144 160 144
WIRE 336 144 288 144
WIRE 160 176 160 144
WIRE 48 224 48 144
WIRE 96 224 48 224
FLAG 288 224 0
FLAG 160 16 +Vcc
FLAG 160 272 -Vcc
FLAG 0 144 v_in
FLAG 336 144 v_out
SYMBOL res 272 128 R0
SYMATTR InstName Load
SYMATTR Value ""
SYMBOL npn 96 16 R0
SYMATTR InstName Q1
SYMATTR Value ""
SYMBOL pnp 96 272 M180
SYMATTR InstName Q2
SYMATTR Value ""
