Version 4
SHEET 1 908 868
WIRE 624 -80 512 -80
WIRE 688 -80 624 -80
WIRE 176 -64 96 -64
WIRE 240 -64 176 -64
WIRE 624 -64 624 -80
WIRE 240 16 176 16
WIRE 688 16 624 16
WIRE 176 32 176 16
WIRE 624 32 624 16
WIRE 240 112 176 112
WIRE 688 112 624 112
WIRE 176 128 176 112
WIRE 624 128 624 112
WIRE 448 144 352 144
WIRE 352 176 352 144
WIRE 368 176 352 176
WIRE 448 192 448 144
WIRE 448 192 432 192
WIRE 512 192 512 -80
WIRE 512 192 448 192
WIRE 240 208 176 208
WIRE 368 208 288 208
WIRE 688 208 624 208
WIRE 800 208 736 208
WIRE 176 224 176 208
WIRE 624 224 624 208
WIRE 240 304 176 304
WIRE 688 304 624 304
WIRE 176 320 176 304
WIRE 624 320 624 304
WIRE 240 400 176 400
WIRE 688 400 624 400
WIRE 176 416 176 400
WIRE 624 416 624 400
WIRE 240 496 176 496
WIRE 688 496 624 496
WIRE 176 512 176 496
WIRE 624 512 624 496
WIRE 688 592 624 592
WIRE 624 608 624 592
FLAG 176 592 0
FLAG 624 688 0
FLAG 800 208 Out
FLAG 96 -64 In
SYMBOL res 160 -80 R0
SYMATTR InstName R1
SYMBOL res 160 16 R0
SYMATTR InstName R2
SYMBOL res 160 112 R0
SYMATTR InstName R3
SYMBOL res 160 208 R0
SYMATTR InstName R4
SYMBOL res 160 304 R0
SYMATTR InstName R5
SYMBOL res 160 400 R0
SYMATTR InstName R6
SYMBOL res 160 496 R0
SYMATTR InstName R7
SYMBOL res 608 -80 R0
SYMATTR InstName R8
SYMBOL res 608 16 R0
SYMATTR InstName R9
SYMBOL res 608 112 R0
SYMATTR InstName R10
SYMBOL res 608 208 R0
SYMATTR InstName R11
SYMBOL res 608 304 R0
SYMATTR InstName R12
SYMBOL res 608 400 R0
SYMATTR InstName R13
SYMBOL res 608 496 R0
SYMATTR InstName R14
SYMBOL myLib\\LM324 400 128 R0
SYMATTR InstName U1
SYMBOL res 608 592 R0
SYMATTR InstName R15
