Version 4
SHEET 1 880 708
WIRE 608 -208 512 -208
WIRE 608 -192 608 -208
WIRE 608 -96 608 -112
WIRE 608 0 608 -16
WIRE 608 96 608 80
WIRE 192 128 80 128
WIRE 608 192 608 176
WIRE 192 224 192 208
WIRE 608 288 608 272
WIRE 448 304 352 304
WIRE 192 320 192 304
WIRE 352 336 352 304
WIRE 368 336 352 336
WIRE 448 352 448 304
WIRE 448 352 432 352
WIRE 512 352 512 -208
WIRE 512 352 448 352
WIRE 368 368 288 368
WIRE 608 384 608 368
WIRE 192 416 192 400
WIRE 608 480 608 464
WIRE 192 512 192 496
WIRE 608 576 608 560
WIRE 192 608 192 592
FLAG 192 688 0
FLAG 80 208 0
FLAG 608 576 0
SYMBOL voltage 80 112 R0
SYMATTR InstName V1
SYMBOL res 176 112 R0
SYMATTR InstName R1
SYMBOL res 176 208 R0
SYMATTR InstName R2
SYMBOL res 176 304 R0
SYMATTR InstName R3
SYMBOL res 176 400 R0
SYMATTR InstName R4
SYMBOL res 176 496 R0
SYMATTR InstName R5
SYMBOL res 176 592 R0
SYMATTR InstName R6
SYMBOL res 592 -208 R0
SYMATTR InstName R7
SYMBOL res 592 -112 R0
SYMATTR InstName R8
SYMBOL res 592 -16 R0
SYMATTR InstName R9
SYMBOL res 592 80 R0
SYMATTR InstName R10
SYMBOL res 592 176 R0
SYMATTR InstName R11
SYMBOL res 592 272 R0
SYMATTR InstName R12
SYMBOL res 592 368 R0
SYMATTR InstName R13
SYMBOL res 592 464 R0
SYMATTR InstName R14
SYMBOL myLib\\LM324 400 288 R0
SYMATTR InstName U1
