Version 4
SHEET 1 888 816
WIRE 624 -272 -112 -272
WIRE 624 -240 -80 -240
WIRE 624 -208 -48 -208
WIRE 624 -176 -16 -176
WIRE 624 -144 16 -144
WIRE -224 -112 -288 -112
WIRE 544 -112 480 -112
WIRE -224 -96 -224 -112
WIRE 544 -96 544 -112
WIRE -288 -80 -288 -112
WIRE 480 -80 480 -112
WIRE -400 -16 -432 -16
WIRE 16 -16 16 -144
WIRE 16 -16 -240 -16
WIRE 368 -16 16 -16
WIRE 624 -16 528 -16
WIRE -432 16 -432 -16
WIRE -400 16 -432 16
WIRE 16 16 -240 16
WIRE 368 16 272 16
WIRE 624 16 528 16
WIRE -432 48 -432 16
WIRE -400 48 -432 48
WIRE -16 48 -16 -176
WIRE -16 48 -240 48
WIRE 368 48 304 48
WIRE 624 48 528 48
WIRE -432 80 -432 48
WIRE -400 80 -432 80
WIRE -48 80 -48 -208
WIRE -48 80 -240 80
WIRE 368 80 336 80
WIRE 624 80 528 80
WIRE 624 112 528 112
WIRE -432 128 -432 80
WIRE -400 128 -432 128
WIRE 624 144 528 144
WIRE -512 160 -752 160
WIRE -400 160 -512 160
WIRE -432 176 -432 128
WIRE 624 176 528 176
WIRE 208 240 144 240
WIRE 208 256 208 240
WIRE 144 272 144 240
WIRE -480 304 -752 304
WIRE -320 304 -320 272
WIRE -320 304 -480 304
WIRE -224 336 -288 336
WIRE 16 336 16 16
WIRE 32 336 16 336
WIRE 272 336 272 16
WIRE 272 336 192 336
WIRE 544 336 480 336
WIRE -224 352 -224 336
WIRE 544 352 544 336
WIRE -288 368 -288 336
WIRE -16 368 -16 48
WIRE 32 368 -16 368
WIRE 304 368 304 48
WIRE 304 368 192 368
WIRE 480 368 480 336
WIRE -48 400 -48 80
WIRE 32 400 -48 400
WIRE 336 400 336 80
WIRE 336 400 192 400
WIRE -400 432 -432 432
WIRE -80 432 -80 -240
WIRE -80 432 -240 432
WIRE 32 432 -80 432
WIRE 368 432 192 432
WIRE 624 432 528 432
WIRE -432 464 -432 432
WIRE -400 464 -432 464
WIRE -112 464 -112 -272
WIRE -112 464 -240 464
WIRE 32 464 -112 464
WIRE 368 464 192 464
WIRE 624 464 528 464
WIRE -432 496 -432 464
WIRE -400 496 -432 496
WIRE 368 496 192 496
WIRE 624 496 528 496
WIRE -432 528 -432 496
WIRE -400 528 -432 528
WIRE 368 528 336 528
WIRE 624 528 528 528
WIRE 336 560 336 528
WIRE 624 560 528 560
WIRE -432 576 -432 528
WIRE -400 576 -432 576
WIRE 624 592 528 592
WIRE -512 608 -512 160
WIRE -400 608 -512 608
WIRE -432 624 -432 576
WIRE 624 624 528 624
WIRE -368 736 -368 720
WIRE -368 736 -432 736
WIRE -480 752 -480 304
WIRE -320 752 -320 720
WIRE -320 752 -480 752
FLAG 336 560 0
FLAG 416 -80 +5V
FLAG 416 368 +5V
FLAG 80 272 +5V
FLAG -352 368 +5V
FLAG -352 -80 +5V
FLAG 544 -96 0
FLAG -224 -96 0
FLAG 208 256 0
FLAG -224 352 0
FLAG 544 352 0
FLAG -272 272 0
FLAG -272 720 0
FLAG 112 576 0
FLAG 400 272 0
FLAG 400 720 0
FLAG 448 272 +5V
FLAG 496 272 +5V
FLAG 496 720 +5V
FLAG 448 720 +5V
FLAG 624 -272 MSB
FLAG 624 -144 LSB
FLAG -432 624 0
FLAG -432 176 0
FLAG -368 272 0
SYMBOL myLib\\HEF4516B -432 272 R0
SYMATTR InstName U1
SYMBOL myLib\\HEF4511 336 272 R0
SYMATTR InstName U2
SYMBOL myLib\\HEF4511 336 720 R0
SYMATTR InstName U3
SYMBOL myLib\\SN74185A 0 624 R0
SYMATTR InstName U4
SYMBOL myLib\\HEF4516B -432 720 R0
SYMATTR InstName U5
TEXT 712 -136 VLeft 0 ;Dæmper input
TEXT 664 160 VLeft 0 ;Syv-segment 1
TEXT 672 608 VLeft 0 ;Syv-segment 2
