Version 4
SHEET 1 1748 772
WIRE -848 16 -848 0
WIRE -848 16 -928 16
WIRE -768 16 -848 16
WIRE -928 32 -928 16
WIRE -768 32 -768 16
WIRE -448 32 -560 32
WIRE 48 32 -48 32
WIRE -192 80 -208 80
WIRE -96 80 -112 80
WIRE -928 112 -928 96
WIRE -560 112 -560 32
WIRE -544 112 -560 112
WIRE -768 128 -768 112
WIRE -448 128 -448 32
WIRE -448 128 -480 128
WIRE -368 128 -448 128
WIRE -208 128 -208 80
WIRE -208 128 -304 128
WIRE -96 128 -96 80
WIRE -48 128 -48 32
WIRE -48 128 -96 128
WIRE -32 128 -48 128
WIRE -544 144 -560 144
WIRE 112 144 112 32
WIRE 112 144 32 144
WIRE 272 144 112 144
WIRE -208 160 -208 128
WIRE -192 160 -208 160
WIRE -48 160 -112 160
WIRE -32 160 -48 160
WIRE 400 160 336 160
WIRE -832 176 -928 176
WIRE 272 176 224 176
WIRE -48 192 -48 160
WIRE -928 208 -928 176
WIRE -560 224 -560 144
WIRE -560 224 -768 224
WIRE -544 224 -560 224
WIRE -768 256 -768 224
WIRE -432 272 -480 272
WIRE -96 288 -96 128
WIRE 224 320 224 176
WIRE 224 320 128 320
WIRE 256 320 224 320
WIRE 400 320 400 160
WIRE 400 320 336 320
WIRE 464 320 400 320
WIRE 592 320 592 304
WIRE 592 320 528 320
WIRE 224 336 224 320
WIRE 592 352 592 320
WIRE 640 352 592 352
WIRE -432 368 -432 272
WIRE -416 368 -432 368
WIRE -304 368 -304 352
WIRE -304 368 -352 368
WIRE -96 400 -96 368
WIRE 464 400 448 400
WIRE 592 400 592 352
WIRE 592 400 528 400
WIRE -432 432 -432 368
WIRE -432 432 -448 432
WIRE -16 448 -32 448
WIRE 400 448 400 320
WIRE 400 448 64 448
WIRE -432 464 -432 432
WIRE -416 464 -432 464
WIRE -192 464 -192 352
WIRE -192 464 -352 464
WIRE -304 528 -304 368
WIRE 112 528 -304 528
WIRE 448 544 448 400
WIRE 448 544 192 544
WIRE 112 560 80 560
WIRE -192 656 -192 464
WIRE 80 656 80 560
WIRE 80 656 -192 656
WIRE 640 656 80 656
FLAG 0 112 +5V
FLAG 304 128 +5V
FLAG -48 272 0
FLAG -96 496 0
FLAG 224 416 0
FLAG -768 320 0
FLAG -512 96 +5V
FLAG 0 176 0
FLAG 304 192 0
FLAG 128 240 +5V
FLAG -848 0 +5V
FLAG -928 288 0
FLAG -528 432 +5V
FLAG 592 224 +5V
FLAG -512 160 0
FLAG 640 352 CLK
FLAG -304 624 0
FLAG -192 752 0
FLAG -304 272 +5V
FLAG -192 272 +5V
FLAG -544 320 0
FLAG 640 656 UP/_DN
SYMBOL cap 112 16 R90
WINDOW 0 0 32 VBottom 0
WINDOW 3 32 32 VTop 0
SYMATTR InstName C1
SYMATTR Value 937n
SYMBOL res -208 96 R270
WINDOW 0 32 56 VTop 0
WINDOW 3 0 56 VBottom 0
SYMATTR InstName R1
SYMATTR Value 80k
SYMBOL res -208 176 R270
WINDOW 0 32 56 VTop 0
WINDOW 3 0 56 VBottom 0
SYMATTR InstName R2
SYMATTR Value 40k
SYMBOL res -64 176 R0
SYMATTR InstName R3
SYMATTR Value 40k
SYMBOL res -112 272 R0
SYMATTR InstName R4
SYMATTR Value 40k
SYMBOL npn -32 400 M0
SYMATTR InstName Q1
SYMATTR Value BC547B
SYMBOL res 80 432 R90
WINDOW 0 0 56 VBottom 0
WINDOW 3 32 56 VTop 0
SYMATTR InstName R5
SYMATTR Value 40k
SYMBOL res 352 304 R90
WINDOW 0 0 56 VBottom 0
WINDOW 3 32 56 VTop 0
SYMATTR InstName R6
SYMATTR Value 40k
SYMBOL res 208 320 R0
SYMATTR InstName R7
SYMATTR Value 40k
SYMBOL cap -784 256 R0
SYMATTR InstName C2
SYMATTR Value 5µ
SYMBOL npn -480 224 M0
SYMATTR InstName Q3
SYMATTR Value BC547B
SYMBOL res 112 224 R0
SYMATTR InstName R10
SYMATTR Value 40k
SYMBOL pnp -832 224 M180
SYMATTR InstName Q4
SYMATTR Value BC557B
SYMBOL diode -944 112 R0
WINDOW 3 29 52 Left 0
SYMATTR Value 1N4148
SYMATTR InstName D2
SYMBOL diode -944 32 R0
WINDOW 3 26 53 Left 0
SYMATTR Value 1N4148
SYMATTR InstName D3
SYMBOL res -784 16 R0
SYMATTR InstName R11
SYMATTR Value 68.2k
SYMBOL res -944 192 R0
SYMATTR InstName R12
SYMATTR Value 40k
SYMBOL res -432 416 R90
WINDOW 0 0 56 VBottom 0
WINDOW 3 32 56 VTop 0
SYMATTR InstName R15
SYMATTR Value 47.6k
SYMBOL res 576 208 R0
SYMATTR InstName R16
SYMATTR Value 47.6k
SYMBOL myLib\\LM324 -512 64 R0
SYMATTR InstName U4
SYMBOL myLib\\LM324 0 80 R0
SYMATTR InstName U5
SYMBOL myLib\\LM324 304 96 R0
SYMATTR InstName U6
SYMBOL myLib\\BAT85 -416 384 R270
WINDOW 0 32 32 VTop 0
WINDOW 3 0 32 VBottom 0
SYMATTR InstName D1
SYMBOL myLib\\BAT85 -416 480 R270
WINDOW 0 32 32 VTop 0
WINDOW 3 0 32 VBottom 0
SYMATTR InstName D4
SYMBOL myLib\\BAT85 528 304 R90
WINDOW 0 0 32 VBottom 0
WINDOW 3 32 32 VTop 0
SYMATTR InstName D5
SYMBOL myLib\\BAT85 528 384 R90
WINDOW 0 0 32 VBottom 0
WINDOW 3 32 32 VTop 0
SYMATTR InstName D6
SYMBOL diode -368 144 R270
WINDOW 0 32 32 VTop 0
WINDOW 3 0 32 VBottom 0
SYMATTR InstName D7
SYMATTR Value 1N4148
SYMBOL res -320 256 R0
SYMATTR InstName R8
SYMATTR Value 40k
SYMBOL res -208 256 R0
SYMATTR InstName R9
SYMATTR Value 40k
SYMBOL myLib\\switch -368 656 R0
SYMATTR InstName S1
SYMBOL myLib\\switch -256 784 R0
SYMATTR InstName S2
SYMBOL myLib\\xor 160 480 R0
SYMATTR InstName U1
